{'_ref': 'TBD', '_srcid': 'CAKYAQ_clean', 'submitters': [{'name': 'Dalar Nazarian Jeff Camp and David Sholl', 'email': 'dalar@gatech.edu jcamp6@gatech.edu'}], '_method': 'VASP DFT with PBE;DDEC'}
data_FeHC4O3
_symmetry_space_group_name_H-M   'P 1'
_cell_length_a   6.89450021
_cell_length_b   15.24029981
_cell_length_c   15.24030000
_cell_angle_alpha   117.76789909
_cell_angle_beta   98.67299944
_cell_angle_gamma   98.67299875
_symmetry_Int_Tables_number   1
_chemical_formula_structural   FeHC4O3
_chemical_formula_sum   'Fe6 H6 C24 O18'
_cell_volume   1355.28634697
_cell_formula_units_Z   6
loop_
 _symmetry_equiv_pos_site_id
 _symmetry_equiv_pos_as_xyz
  1  'x, y, z'
loop_
 _atom_site_type_symbol
 _atom_site_fract_x
 _atom_site_fract_y
 _atom_site_fract_z
 _atom_site_charge
 Fe 0.889 0.6792 0.4126   0.964411
 Fe 0.4764 0.5874 0.2666   0.964373
 Fe 0.2098 0.7334 0.3208   0.964598
 Fe 0.111 0.3208 0.5874   0.964411
 Fe 0.5236 0.4126 0.7334   0.964373
 Fe 0.7902 0.2666 0.6792   0.964598
 H 0.6583 0.0307 0.4622   0.137752
 H 0.1961 0.5378 0.5685   0.138236
 H 0.6276 0.4315 0.9693   0.1382
 H 0.3417 0.9693 0.5378   0.137752
 H 0.8039 0.4622 0.4315   0.138236
 H 0.3724 0.5685 0.0307   0.138199
 C 0.6286 0.8292 0.3826   0.803269
 C 0.8381 0.9106 0.4488   -0.255067
 C 0.0458 0.9008 0.4646   0.380297
 C 0.7976 0.0033 0.4725   -0.230185
 C 0.246 0.6174 0.4466   0.803604
 C 0.3893 0.5512 0.4618   -0.254667
 C 0.5812 0.5354 0.4362   0.379616
 C 0.3251 0.5275 0.5308   -0.231216
 C 0.7994 0.5534 0.1708   0.8032
 C 0.9275 0.5382 0.0894   -0.254132
 C 0.145 0.5638 0.0992   0.380654
 C 0.7943 0.4692 0.9967   -0.232128
 C 0.3714 0.1708 0.6174   0.803269
 C 0.1619 0.0894 0.5512   -0.255068
 C 0.9542 0.0992 0.5354   0.380296
 C 0.2024 0.9967 0.5275   -0.230185
 C 0.754 0.3826 0.5534   0.803604
 C 0.6107 0.4488 0.5382   -0.254668
 C 0.4188 0.4646 0.5638   0.379615
 C 0.6749 0.4725 0.4692   -0.231216
 C 0.2006 0.4466 0.8292   0.8032
 C 0.0725 0.4618 0.9106   -0.254133
 C 0.855 0.4362 0.9008   0.380654
 C 0.2057 0.5308 0.0033   -0.232128
 O 0.668 0.7485 0.3535   -0.668566
 O 0.4736 0.8448 0.376   -0.546476
 O 0.077 0.817 0.444   -0.585557
 O 0.3145 0.6465 0.395   -0.668984
 O 0.0976 0.624 0.4688   -0.546474
 O 0.633 0.556 0.373   -0.584516
 O 0.9195 0.605 0.2515   -0.668494
 O 0.6288 0.5312 0.1552   -0.546326
 O 0.26 0.627 0.183   -0.585421
 O 0.332 0.2515 0.6465   -0.668566
 O 0.5264 0.1552 0.624   -0.546476
 O 0.923 0.183 0.556   -0.585557
 O 0.6855 0.3535 0.605   -0.668984
 O 0.9024 0.376 0.5312   -0.546474
 O 0.367 0.444 0.627   -0.584516
 O 0.0805 0.395 0.7485   -0.668494
 O 0.3712 0.4688 0.8448   -0.546326
 O 0.74 0.373 0.817   -0.585421
