data_FIQCEN_clean
_audit_creation_date              2014-07-02
_audit_creation_method            'Materials Studio'
_symmetry_space_group_name_H-M    'P1'
_symmetry_Int_Tables_number       1
_symmetry_cell_setting            triclinic
loop_
_symmetry_equiv_pos_as_xyz
  x,y,z
_cell_length_a                    18.6273
_cell_length_b                    18.6273
_cell_length_c                    18.6273
_cell_angle_alpha                 60.0000
_cell_angle_beta                  60.0000
_cell_angle_gamma                 60.0000
loop_
_atom_site_label
_atom_site_type_symbol
_atom_site_fract_x
_atom_site_fract_y
_atom_site_fract_z
_atom_site_U_iso_or_equiv
_atom_site_adp_type
_atom_site_occupancy
Cu1    Cu    0.57057  -0.00000   0.42943   0.01267  Uiso   1.00
H1     H     0.72800   0.72800   0.51160   0.01267  Uiso   1.00
C1     C     0.25700   0.96900   0.38700   0.01267  Uiso   1.00
O22    O     0.12575   0.50753   0.38799   0.01267  Uiso   1.00
O22    Kr    0.56575   0.95000   0.38799   0.01267  Uiso   1.00
